1

   Abaqus 2022                                  Date 24-sep.-2023   Time 18:57:28
   For use by NTNU NORGES TEKNISK NATURVITENSKAPELIGE UNIVERSITET under license from Dassault Systemes or its subsidiary.



                         The Abaqus Software is a product of:

                           Dassault Systemes SIMULIA Corp.
                           1301 Atwood Avenue, Suite 101W
                              Johnston, RI 02919, USA
 


                   The Abaqus Software is available only under license
                   from Dassault Systemes or its subsidiary and may be
                   used or reproduced only in accordance with the terms
                   of such license.
 
                          On machine ntnu09290 
                          you are authorized to run
                          Abaqus/Explicit until 30-Sep-2023

                          Your site id is: 100000000001981 


 
                    For assistance or any other information you may
                    obtain contact information for your local office
                    from the world wide web at:

                      http://www.3ds.com/products/simulia/locations/

 
                * * * * * * * * * * * * * * * * * * * * * * * * * * * * * * 
                *                                                         * 
                *                   *****************                     * 
                *                   *  N O T I C E  *                     * 
                *                   *****************                     * 
                *                                                         * 
                *                                                         * 
                *                       Abaqus 2022                       * 
                *                                                         * 
                *          BUILD ID: 2021_09_15-19.57.30 176069           * 
                *                                                         * 
                *                                                         * 
                *  Please make sure you are using                         * 
                *  release Abaqus 2022 manuals                            * 
                *  plus the notes accompanying this release.              * 
                *                                                         * 
                *                                                         * 
                *                                                         * 
                *                                                         * 
                *                                                         * 
                *   This program may not be used for commercial purposes  * 
                *           without payment of a commercial fee.          * 
                *                                                         * 
                * * * * * * * * * * * * * * * * * * * * * * * * * * * * * * 


 



     PROCESSING PART, INSTANCE, AND ASSEMBLY INFORMATION
   *******************************************************


     END PROCESSING PART, INSTANCE, AND ASSEMBLY INFORMATION
   ***********************************************************




     OPTIONS BEING PROCESSED
   ***************************


  *Heading
  *Node
  *Element, type=C3D8R
  *Nset, nset=ASSEMBLY_VUMAT_ENCAS
  *Nset, nset=ASSEMBLY_VUMAT_LOAD
  *Nset, nset=ASSEMBLY_VUMAT_SYMX
  *Nset, nset=ASSEMBLY_VUMAT_SYMZ
  *Elset, elset=ASSEMBLY_VUMAT_SOLID
  *Node
  *Element, type=C3D8R
  *Nset, nset=ASSEMBLY_REF_ENCAS
  *Nset, nset=ASSEMBLY_REF_LOAD
  *Nset, nset=ASSEMBLY_REF_SYMX
  *Nset, nset=ASSEMBLY_REF_SYMZ
  *Elset, elset=ASSEMBLY_REF_SOLID
  *material, name=REF
  *density
  *elastic
  *material, name=VUMAT
  *density
  *usermaterial, constants=8
  *solidsection, elset=ASSEMBLY_VUMAT_SOLID, material=VUMAT
  *solidsection, elset=ASSEMBLY_REF_SOLID, material=REF
  *solidsection, elset=ASSEMBLY_VUMAT_SOLID, material=VUMAT
  *solidsection, elset=ASSEMBLY_REF_SOLID, material=REF
  *boundary
  *boundary
  *boundary
  *boundary
  *boundary
  *boundary
  *boundary, amplitude=AMP-2, type=VELOCITY
  *boundary, amplitude=AMP-2, type=VELOCITY
  *solidsection, elset=ASSEMBLY_VUMAT_SOLID, material=VUMAT
  *solidsection, elset=ASSEMBLY_REF_SOLID, material=REF
  *elementoutput
  *amplitude, name=AMP-2, definition=SMOOTHSTEP
  *output, field, numberinterval=150, timemarks=YES
  *output, history, variable=PRESELECT, timeinterval=0.01
  *Step, name=load
  *Step, name=load
  *dynamic, explicit, scalefactor=0.5
  *boundary, amplitude=AMP-2, type=VELOCITY
  *boundary, amplitude=AMP-2, type=VELOCITY
  *output, field, numberinterval=150, timemarks=YES
  *elementoutput
  *nodeoutput
  *output, history, variable=PRESELECT, timeinterval=0.01
  *endstep

 ***WARNING: OUTPUT VARIABLE SDV HAS NO COMPONENTS IN THIS ANALYSIS FOR ELEMENT 
             TYPE C3D8R

 ***WARNING: OUTPUT VARIABLE SDV HAS NO COMPONENTS IN THIS ANALYSIS FOR ELEMENT 
             TYPE C3D8R
  *boundary
  *boundary
  *boundary
  *boundary
  *boundary
  *boundary
  *Step, name=load
  *dynamic, explicit, scalefactor=0.5
  *boundary, amplitude=AMP-2, type=VELOCITY
  *boundary, amplitude=AMP-2, type=VELOCITY
  *endstep

 ***WARNING: USER SUBROUTINE VUMAT WILL BE USED WITH THE STATEV ARRAY 
             DIMENSIONED TO ZERO SINCE THE *DEPVAR OPTION IS NOT USED WITH THIS 
             MATERIAL. CONSEQUENTLY, DEFINING STATEV ENTRIES IN SUBROUTINE 
             VUMAT WILL CAUSE CODE EXECUTION ERRORS.



                            P R O B L E M   S I Z E


          NUMBER OF ELEMENTS IS                                     2
          NUMBER OF NODES IS                                       16
          NUMBER OF NODES DEFINED BY THE USER                      16
          TOTAL NUMBER OF VARIABLES IN THE MODEL                   48
          (DEGREES OF FREEDOM PLUS MAX NO. OF ANY LAGRANGE MULTIPLIER
           VARIABLES. INCLUDE *PRINT,SOLVE=YES TO GET THE ACTUAL NUMBER.)



                              END OF USER INPUT PROCESSING



     JOB TIME SUMMARY
       USER TIME (SEC)      =  4.00000E-02
       SYSTEM TIME (SEC)    =  1.00000E-02
       TOTAL CPU TIME (SEC) =  5.00000E-02
       WALLCLOCK TIME (SEC) =          0
